Geom Title=attempt3geometry
Program Version=5.01
Viewing Rectangle= 945844.909173517 , 1017452.73847719 , 1047421.41461655 , 963833.568243064 

Storage Area=myarea3         ,974157.734741,1021211.7510329
Storage Area Surface Line= 27 
947475.7896712131040042.45856911                
949774.1530302531040042.45856911                
952072.5163892921039316.65961362                
959451.4724367341038953.76013588                
966225.5960212721033873.16744748                
973967.4515464571028792.57475907                
979894.809682927 1024800.6805039                
984733.4693861681019357.18833775                
990781.7940152191014034.66266419                
994047.8893149071008470.20400546                
997072.051629432 1000607.3819877                
996709.152151689997462.253180588                
988846.330133923996010.655269616                
988120.531178437 1001212.2144506                
983160.9049826151007381.50557223                
981709.3070716421011373.39982741                
 975540.01595001 1019720.0878155                
971790.0546799991024679.71401132                
966104.6295286911027582.90983326                
963564.333184489 1029881.2731923                
959693.4054218961032784.46901425                
954733.7792260741033994.13394006                
950983.8179560631035082.83237329                
949532.2200450911033147.36849199                
947354.8231786321034477.99991038                
947596.7561637941039800.52558395                
947475.7896712131040042.45856911                
Storage Area Type= 0 
Storage Area Area=
Storage Area Min Elev=
Storage Area Is2D=-1
Storage Area Point Generation Data=0,0,60,60
Storage Area 2D Points= 120066 
947564.8231786321040012.45856911947624.8231786321040012.45856911
947684.8231786321040012.45856911947744.8231786321040012.45856911
947804.8231786321040012.45856911947864.8231786321040012.45856911
947924.8231786321040012.45856911947984.8231786321040012.45856911
948044.8231786321040012.45856911948104.8231786321040012.45856911
948164.8231786321040012.45856911948224.8231786321040012.45856911
948284.8231786321040012.45856911948344.8231786321040012.45856911
948404.8231786321040012.45856911948464.8231786321040012.45856911
948524.8231786321040012.45856911948584.8231786321040012.45856911
948644.8231786321040012.45856911948704.8231786321040012.45856911
948764.8231786321040012.45856911948824.8231786321040012.45856911
948884.8231786321040012.45856911948944.8231786321040012.45856911
949004.8231786321040012.45856911949064.8231786321040012.45856911
949124.8231786321040012.45856911949184.8231786321040012.45856911
949244.8231786321040012.45856911949304.8231786321040012.45856911
949364.8231786321040012.45856911949424.8231786321040012.45856911
949484.8231786321040012.45856911949544.8231786321040012.45856911
949604.8231786321040012.45856911949664.8231786321040012.45856911
949724.8231786321040012.45856911949784.8231786321040012.45856911
947564.8231786321039952.45856911947624.8231786321039952.45856911
947684.8231786321039952.45856911947744.8231786321039952.45856911
947804.8231786321039952.45856911947864.8231786321039952.45856911
947924.8231786321039952.45856911947984.8231786321039952.45856911
948044.8231786321039952.45856911948104.8231786321039952.45856911
948164.8231786321039952.45856911948224.8231786321039952.45856911
948284.8231786321039952.45856911948344.8231786321039952.45856911
948404.8231786321039952.45856911948464.8231786321039952.45856911
948524.8231786321039952.45856911948584.8231786321039952.45856911
948644.8231786321039952.45856911948704.8231786321039952.45856911
948764.8231786321039952.45856911948824.8231786321039952.45856911
948884.8231786321039952.45856911948944.8231786321039952.45856911
949004.8231786321039952.45856911949064.8231786321039952.45856911
949124.8231786321039952.45856911949184.8231786321039952.45856911
949244.8231786321039952.45856911949304.8231786321039952.45856911
949364.8231786321039952.45856911949424.8231786321039952.45856911
949484.8231786321039952.45856911949544.8231786321039952.45856911
949604.8231786321039952.45856911949664.8231786321039952.45856911
949724.8231786321039952.45856911949784.8231786321039952.45856911
949844.8231786321039952.45856911949904.8231786321039952.45856911
949964.8231786321039952.45856911947624.8231786321039892.45856911
947684.8231786321039892.45856911947744.8231786321039892.45856911
947804.8231786321039892.45856911947864.8231786321039892.45856911
947924.8231786321039892.45856911947984.8231786321039892.45856911
948044.8231786321039892.45856911948104.8231786321039892.45856911
948164.8231786321039892.45856911948224.8231786321039892.45856911
948284.8231786321039892.45856911948344.8231786321039892.45856911
948404.8231786321039892.45856911948464.8231786321039892.45856911
948524.8231786321039892.45856911948584.8231786321039892.45856911
948644.8231786321039892.45856911948704.8231786321039892.45856911
948764.8231786321039892.45856911948824.8231786321039892.45856911
948884.8231786321039892.45856911948944.8231786321039892.45856911
949004.8231786321039892.45856911949064.8231786321039892.45856911
949124.8231786321039892.45856911949184.8231786321039892.45856911
949244.8231786321039892.45856911949304.8231786321039892.45856911
949364.8231786321039892.45856911949424.8231786321039892.45856911
949484.8231786321039892.45856911949544.8231786321039892.45856911
949604.8231786321039892.45856911949664.8231786321039892.45856911
949724.8231786321039892.45856911949784.8231786321039892.45856911
949844.8231786321039892.45856911949904.8231786321039892.45856911
949964.8231786321039892.45856911950024.8231786321039892.45856911
950084.8231786321039892.45856911950144.8231786321039892.45856911
947624.8231786321039832.45856911947684.8231786321039832.45856911
947744.8231786321039832.45856911947804.8231786321039832.45856911
947864.8231786321039832.45856911947924.8231786321039832.45856911
947984.8231786321039832.45856911948044.8231786321039832.45856911
948104.8231786321039832.45856911948164.8231786321039832.45856911
948224.8231786321039832.45856911948284.8231786321039832.45856911
948344.8231786321039832.45856911948404.8231786321039832.45856911
948464.8231786321039832.45856911948524.8231786321039832.45856911
948584.8231786321039832.45856911948644.8231786321039832.45856911
948704.8231786321039832.45856911948764.8231786321039832.45856911
948824.8231786321039832.45856911948884.8231786321039832.45856911
948944.8231786321039832.45856911949004.8231786321039832.45856911
949064.8231786321039832.45856911949124.8231786321039832.45856911
949184.8231786321039832.45856911949244.8231786321039832.45856911
949304.8231786321039832.45856911949364.8231786321039832.45856911
949424.8231786321039832.45856911949484.8231786321039832.45856911
949544.8231786321039832.45856911949604.8231786321039832.45856911
949664.8231786321039832.45856911949724.8231786321039832.45856911
949784.8231786321039832.45856911949844.8231786321039832.45856911
949904.8231786321039832.45856911949964.8231786321039832.45856911
950024.8231786321039832.45856911950084.8231786321039832.45856911
950144.8231786321039832.45856911950204.8231786321039832.45856911
950264.8231786321039832.45856911950324.8231786321039832.45856911
950384.8231786321039832.45856911947624.8231786321039772.45856911
947684.8231786321039772.45856911947744.8231786321039772.45856911
947804.8231786321039772.45856911947864.8231786321039772.45856911
947924.8231786321039772.45856911947984.8231786321039772.45856911
948044.8231786321039772.45856911948104.8231786321039772.45856911
948164.8231786321039772.45856911948224.8231786321039772.45856911
948284.8231786321039772.45856911948344.8231786321039772.45856911
948404.8231786321039772.45856911948464.8231786321039772.45856911
948524.8231786321039772.45856911948584.8231786321039772.45856911
948644.8231786321039772.45856911948704.8231786321039772.45856911
948764.8231786321039772.45856911948824.8231786321039772.45856911
948884.8231786321039772.45856911948944.8231786321039772.45856911
949004.8231786321039772.45856911949064.8231786321039772.45856911
949124.8231786321039772.45856911949184.8231786321039772.45856911
949244.8231786321039772.45856911949304.8231786321039772.45856911
949364.8231786321039772.45856911949424.8231786321039772.45856911
949484.8231786321039772.45856911949544.8231786321039772.45856911
949604.8231786321039772.45856911949664.8231786321039772.45856911
949724.8231786321039772.45856911949784.8231786321039772.45856911
949844.8231786321039772.45856911949904.8231786321039772.45856911
949964.8231786321039772.45856911950024.8231786321039772.45856911
950084.8231786321039772.45856911950144.8231786321039772.45856911
950204.8231786321039772.45856911950264.8231786321039772.45856911
950324.8231786321039772.45856911950384.8231786321039772.45856911
950444.8231786321039772.45856911950504.8231786321039772.45856911
950564.8231786321039772.45856911947624.8231786321039712.45856911
947684.8231786321039712.45856911947744.8231786321039712.45856911
947804.8231786321039712.45856911947864.8231786321039712.45856911
947924.8231786321039712.45856911947984.8231786321039712.45856911
948044.8231786321039712.45856911948104.8231786321039712.45856911
948164.8231786321039712.45856911948224.8231786321039712.45856911
948284.8231786321039712.45856911948344.8231786321039712.45856911
948404.8231786321039712.45856911948464.8231786321039712.45856911
948524.8231786321039712.45856911948584.8231786321039712.45856911
948644.8231786321039712.45856911948704.8231786321039712.45856911
948764.8231786321039712.45856911948824.8231786321039712.45856911
948884.8231786321039712.45856911948944.8231786321039712.45856911
949004.8231786321039712.45856911949064.8231786321039712.45856911
949124.8231786321039712.45856911949184.8231786321039712.45856911
949244.8231786321039712.45856911949304.8231786321039712.45856911
949364.8231786321039712.45856911949424.8231786321039712.45856911
949484.8231786321039712.45856911949544.8231786321039712.45856911
949604.8231786321039712.45856911949664.8231786321039712.45856911
949724.8231786321039712.45856911949784.8231786321039712.45856911
949844.8231786321039712.45856911949904.8231786321039712.45856911
949964.8231786321039712.45856911950024.8231786321039712.45856911
950084.8231786321039712.45856911950144.8231786321039712.45856911
950204.8231786321039712.45856911950264.8231786321039712.45856911
950324.8231786321039712.45856911950384.8231786321039712.45856911
950444.8231786321039712.45856911950504.8231786321039712.45856911
950564.8231786321039712.45856911950624.8231786321039712.45856911
950684.8231786321039712.45856911950744.8231786321039712.45856911
947624.8231786321039652.45856911947684.8231786321039652.45856911
947744.8231786321039652.45856911947804.8231786321039652.45856911
947864.8231786321039652.45856911947924.8231786321039652.45856911
947984.8231786321039652.45856911948044.8231786321039652.45856911
948104.8231786321039652.45856911948164.8231786321039652.45856911
948224.8231786321039652.45856911948284.8231786321039652.45856911
948344.8231786321039652.45856911948404.8231786321039652.45856911
948464.8231786321039652.45856911948524.8231786321039652.45856911
948584.8231786321039652.45856911948644.8231786321039652.45856911
948704.8231786321039652.45856911948764.8231786321039652.45856911
948824.8231786321039652.45856911948884.8231786321039652.45856911
948944.8231786321039652.45856911949004.8231786321039652.45856911
949064.8231786321039652.45856911949124.8231786321039652.45856911
949184.8231786321039652.45856911949244.8231786321039652.45856911
949304.8231786321039652.45856911949364.8231786321039652.45856911
949424.8231786321039652.45856911949484.8231786321039652.45856911
949544.8231786321039652.45856911949604.8231786321039652.45856911
949664.8231786321039652.45856911949724.8231786321039652.45856911
949784.8231786321039652.45856911949844.8231786321039652.45856911
949904.8231786321039652.45856911949964.8231786321039652.45856911
950024.8231786321039652.45856911950084.8231786321039652.45856911
950144.8231786321039652.45856911950204.8231786321039652.45856911
950264.8231786321039652.45856911950324.8231786321039652.45856911
950384.8231786321039652.45856911950444.8231786321039652.45856911
950504.8231786321039652.45856911950564.8231786321039652.45856911
950624.8231786321039652.45856911950684.8231786321039652.45856911
950744.8231786321039652.45856911950804.8231786321039652.45856911
950864.8231786321039652.45856911950924.8231786321039652.45856911
947624.8231786321039592.45856911947684.8231786321039592.45856911
947744.8231786321039592.45856911947804.8231786321039592.45856911
947864.8231786321039592.45856911947924.8231786321039592.45856911
947984.8231786321039592.45856911948044.8231786321039592.45856911
948104.8231786321039592.45856911948164.8231786321039592.45856911
948224.8231786321039592.45856911948284.8231786321039592.45856911
948344.8231786321039592.45856911948404.8231786321039592.45856911
948464.8231786321039592.45856911948524.8231786321039592.45856911
948584.8231786321039592.45856911948644.8231786321039592.45856911
948704.8231786321039592.45856911948764.8231786321039592.45856911
948824.8231786321039592.45856911948884.8231786321039592.45856911
948944.8231786321039592.45856911949004.8231786321039592.45856911
949064.8231786321039592.45856911949124.8231786321039592.45856911
949184.8231786321039592.45856911949244.8231786321039592.45856911
949304.8231786321039592.45856911949364.8231786321039592.45856911
949424.8231786321039592.45856911949484.8231786321039592.45856911
949544.8231786321039592.45856911949604.8231786321039592.45856911
949664.8231786321039592.45856911949724.8231786321039592.45856911
949784.8231786321039592.45856911949844.8231786321039592.45856911
949904.8231786321039592.45856911949964.8231786321039592.45856911
950024.8231786321039592.45856911950084.8231786321039592.45856911
950144.8231786321039592.45856911950204.8231786321039592.45856911
950264.8231786321039592.45856911950324.8231786321039592.45856911
950384.8231786321039592.45856911950444.8231786321039592.45856911
950504.8231786321039592.45856911950564.8231786321039592.45856911
950624.8231786321039592.45856911950684.8231786321039592.45856911
950744.8231786321039592.45856911950804.8231786321039592.45856911
950864.8231786321039592.45856911950924.8231786321039592.45856911
950984.8231786321039592.45856911951044.8231786321039592.45856911
951104.8231786321039592.45856911947624.8231786321039532.45856911
947684.8231786321039532.45856911947744.8231786321039532.45856911
947804.8231786321039532.45856911947864.8231786321039532.45856911
947924.8231786321039532.45856911947984.8231786321039532.45856911
948044.8231786321039532.45856911948104.8231786321039532.45856911
948164.8231786321039532.45856911948224.8231786321039532.45856911
948284.8231786321039532.45856911948344.8231786321039532.45856911
948404.8231786321039532.45856911948464.8231786321039532.45856911
948524.8231786321039532.45856911948584.8231786321039532.45856911
948644.8231786321039532.45856911948704.8231786321039532.45856911
948764.8231786321039532.45856911948824.8231786321039532.45856911
948884.8231786321039532.45856911948944.8231786321039532.45856911
949004.8231786321039532.45856911949064.8231786321039532.45856911
949124.8231786321039532.45856911949184.8231786321039532.45856911
949244.8231786321039532.45856911949304.8231786321039532.45856911
949364.8231786321039532.45856911949424.8231786321039532.45856911
949484.8231786321039532.45856911949544.8231786321039532.45856911
949604.8231786321039532.45856911949664.8231786321039532.45856911
949724.8231786321039532.45856911949784.8231786321039532.45856911
949844.8231786321039532.45856911949904.8231786321039532.45856911
949964.8231786321039532.45856911950024.8231786321039532.45856911
950084.8231786321039532.45856911950144.8231786321039532.45856911
950204.8231786321039532.45856911950264.8231786321039532.45856911
950324.8231786321039532.45856911950384.8231786321039532.45856911
950444.8231786321039532.45856911950504.8231786321039532.45856911
950564.8231786321039532.45856911950624.8231786321039532.45856911
950684.8231786321039532.45856911950744.8231786321039532.45856911
950804.8231786321039532.45856911950864.8231786321039532.45856911
950924.8231786321039532.45856911950984.8231786321039532.45856911
951044.8231786321039532.45856911951104.8231786321039532.45856911
951164.8231786321039532.45856911951224.8231786321039532.45856911
951284.8231786321039532.45856911947624.8231786321039472.45856911
947684.8231786321039472.45856911947744.8231786321039472.45856911
947804.8231786321039472.45856911947864.8231786321039472.45856911
947924.8231786321039472.45856911947984.8231786321039472.45856911
948044.8231786321039472.45856911948104.8231786321039472.45856911
948164.8231786321039472.45856911948224.8231786321039472.45856911
948284.8231786321039472.45856911948344.8231786321039472.45856911
948404.8231786321039472.45856911948464.8231786321039472.45856911
948524.8231786321039472.45856911948584.8231786321039472.45856911
948644.8231786321039472.45856911948704.8231786321039472.45856911
948764.8231786321039472.45856911948824.8231786321039472.45856911
948884.8231786321039472.45856911948944.8231786321039472.45856911
949004.8231786321039472.45856911949064.8231786321039472.45856911
949124.8231786321039472.45856911949184.8231786321039472.45856911
949244.8231786321039472.45856911949304.8231786321039472.45856911
949364.8231786321039472.45856911949424.8231786321039472.45856911
949484.8231786321039472.45856911949544.8231786321039472.45856911
949604.8231786321039472.45856911949664.8231786321039472.45856911
949724.8231786321039472.45856911949784.8231786321039472.45856911
949844.8231786321039472.45856911949904.8231786321039472.45856911
949964.8231786321039472.45856911950024.8231786321039472.45856911
950084.8231786321039472.45856911950144.8231786321039472.45856911
950204.8231786321039472.45856911950264.8231786321039472.45856911
950324.8231786321039472.45856911950384.8231786321039472.45856911
950444.8231786321039472.45856911950504.8231786321039472.45856911
950564.8231786321039472.45856911950624.8231786321039472.45856911
950684.8231786321039472.45856911950744.8231786321039472.45856911
950804.8231786321039472.45856911950864.8231786321039472.45856911
950924.8231786321039472.45856911950984.8231786321039472.45856911
951044.8231786321039472.45856911951104.8231786321039472.45856911
951164.8231786321039472.45856911951224.8231786321039472.45856911
951284.8231786321039472.45856911951344.8231786321039472.45856911
951404.8231786321039472.45856911951464.8231786321039472.45856911
951524.8231786321039472.45856911947624.8231786321039412.45856911
947684.8231786321039412.45856911947744.8231786321039412.45856911
947804.8231786321039412.45856911947864.8231786321039412.45856911
947924.8231786321039412.45856911947984.8231786321039412.45856911
948044.8231786321039412.45856911948104.8231786321039412.45856911
948164.8231786321039412.45856911948224.8231786321039412.45856911
948284.8231786321039412.45856911948344.8231786321039412.45856911
948404.8231786321039412.45856911948464.8231786321039412.45856911
948524.8231786321039412.45856911948584.8231786321039412.45856911
948644.8231786321039412.45856911948704.8231786321039412.45856911
948764.8231786321039412.45856911948824.8231786321039412.45856911
948884.8231786321039412.45856911948944.8231786321039412.45856911
949004.8231786321039412.45856911949064.8231786321039412.45856911
949124.8231786321039412.45856911949184.8231786321039412.45856911
949244.8231786321039412.45856911949304.8231786321039412.45856911
949364.8231786321039412.45856911949424.8231786321039412.45856911
949484.8231786321039412.45856911949544.8231786321039412.45856911
949604.8231786321039412.45856911949664.8231786321039412.45856911
949724.8231786321039412.45856911949784.8231786321039412.45856911
949844.8231786321039412.45856911949904.8231786321039412.45856911
949964.8231786321039412.45856911950024.8231786321039412.45856911
950084.8231786321039412.45856911950144.8231786321039412.45856911
950204.8231786321039412.45856911950264.8231786321039412.45856911
950324.8231786321039412.45856911950384.8231786321039412.45856911
950444.8231786321039412.45856911950504.8231786321039412.45856911
950564.8231786321039412.45856911950624.8231786321039412.45856911
950684.8231786321039412.45856911950744.8231786321039412.45856911
950804.8231786321039412.45856911950864.8231786321039412.45856911
950924.8231786321039412.45856911950984.8231786321039412.45856911
951044.8231786321039412.45856911951104.8231786321039412.45856911
951164.8231786321039412.45856911951224.8231786321039412.45856911
951284.8231786321039412.45856911951344.8231786321039412.45856911
951404.8231786321039412.45856911951464.8231786321039412.45856911
951524.8231786321039412.45856911951584.8231786321039412.45856911
951644.8231786321039412.45856911951704.8231786321039412.45856911
947624.8231786321039352.45856911947684.8231786321039352.45856911
947744.8231786321039352.45856911947804.8231786321039352.45856911
947864.8231786321039352.45856911947924.8231786321039352.45856911
947984.8231786321039352.45856911948044.8231786321039352.45856911
948104.8231786321039352.45856911948164.8231786321039352.45856911
948224.8231786321039352.45856911948284.8231786321039352.45856911
948344.8231786321039352.45856911948404.8231786321039352.45856911
948464.8231786321039352.45856911948524.8231786321039352.45856911
948584.8231786321039352.45856911948644.8231786321039352.45856911
948704.8231786321039352.45856911948764.8231786321039352.45856911
948824.8231786321039352.45856911948884.8231786321039352.45856911
948944.8231786321039352.45856911949004.8231786321039352.45856911
949064.8231786321039352.45856911949124.8231786321039352.45856911
949184.8231786321039352.45856911949244.8231786321039352.45856911
949304.8231786321039352.45856911949364.8231786321039352.45856911
949424.8231786321039352.45856911949484.8231786321039352.45856911
949544.8231786321039352.45856911949604.8231786321039352.45856911
949664.8231786321039352.45856911949724.8231786321039352.45856911
949784.8231786321039352.45856911949844.8231786321039352.45856911
949904.8231786321039352.45856911949964.8231786321039352.45856911
950024.8231786321039352.45856911950084.8231786321039352.45856911
950144.8231786321039352.45856911950204.8231786321039352.45856911
950264.8231786321039352.45856911950324.8231786321039352.45856911
950384.8231786321039352.45856911950444.8231786321039352.45856911
950504.8231786321039352.45856911950564.8231786321039352.45856911
950624.8231786321039352.45856911950684.8231786321039352.45856911
950744.8231786321039352.45856911950804.8231786321039352.45856911
950864.8231786321039352.45856911950924.8231786321039352.45856911
950984.8231786321039352.45856911951044.8231786321039352.45856911
951104.8231786321039352.45856911951164.8231786321039352.45856911
951224.8231786321039352.45856911951284.8231786321039352.45856911
951344.8231786321039352.45856911951404.8231786321039352.45856911
951464.8231786321039352.45856911951524.8231786321039352.45856911
951584.8231786321039352.45856911951644.8231786321039352.45856911
951704.8231786321039352.45856911951764.8231786321039352.45856911
951824.8231786321039352.45856911951884.8231786321039352.45856911
947624.8231786321039292.45856911947684.8231786321039292.45856911
947744.8231786321039292.45856911947804.8231786321039292.45856911
947864.8231786321039292.45856911947924.8231786321039292.45856911
947984.8231786321039292.45856911948044.8231786321039292.45856911
948104.8231786321039292.45856911948164.8231786321039292.45856911
948224.8231786321039292.45856911948284.8231786321039292.45856911
948344.8231786321039292.45856911948404.8231786321039292.45856911
948464.8231786321039292.45856911948524.8231786321039292.45856911
948584.8231786321039292.45856911948644.8231786321039292.45856911
948704.8231786321039292.45856911948764.8231786321039292.45856911
948824.8231786321039292.45856911948884.8231786321039292.45856911
948944.8231786321039292.45856911949004.8231786321039292.45856911
949064.8231786321039292.45856911949124.8231786321039292.45856911
949184.8231786321039292.45856911949244.8231786321039292.45856911
949304.8231786321039292.45856911949364.8231786321039292.45856911
949424.8231786321039292.45856911949484.8231786321039292.45856911
949544.8231786321039292.45856911949604.8231786321039292.45856911
949664.8231786321039292.45856911949724.8231786321039292.45856911
949784.8231786321039292.45856911949844.8231786321039292.45856911
949904.8231786321039292.45856911949964.8231786321039292.45856911
950024.8231786321039292.45856911950084.8231786321039292.45856911
950144.8231786321039292.45856911950204.8231786321039292.45856911
950264.8231786321039292.45856911950324.8231786321039292.45856911
950384.8231786321039292.45856911950444.8231786321039292.45856911
950504.8231786321039292.45856911950564.8231786321039292.45856911
950624.8231786321039292.45856911950684.8231786321039292.45856911
950744.8231786321039292.45856911950804.8231786321039292.45856911
950864.8231786321039292.45856911950924.8231786321039292.45856911
950984.8231786321039292.45856911951044.8231786321039292.45856911
951104.8231786321039292.45856911951164.8231786321039292.45856911
951224.8231786321039292.45856911951284.8231786321039292.45856911
951344.8231786321039292.45856911951404.8231786321039292.45856911
951464.8231786321039292.45856911951524.8231786321039292.45856911
951584.8231786321039292.45856911951644.8231786321039292.45856911
951704.8231786321039292.45856911951764.8231786321039292.45856911
951824.8231786321039292.45856911951884.8231786321039292.45856911
951944.8231786321039292.45856911952004.8231786321039292.45856911
952064.8231786321039292.45856911952124.8231786321039292.45856911
952184.8231786321039292.45856911952244.8231786321039292.45856911
947624.8231786321039232.45856911947684.8231786321039232.45856911
947744.8231786321039232.45856911947804.8231786321039232.45856911
947864.8231786321039232.45856911947924.8231786321039232.45856911
947984.8231786321039232.45856911948044.8231786321039232.45856911
948104.8231786321039232.45856911948164.8231786321039232.45856911
948224.8231786321039232.45856911948284.8231786321039232.45856911
948344.8231786321039232.45856911948404.8231786321039232.45856911
948464.8231786321039232.45856911948524.8231786321039232.45856911
948584.8231786321039232.45856911948644.8231786321039232.45856911
948704.8231786321039232.45856911948764.8231786321039232.45856911
948824.8231786321039232.45856911948884.8231786321039232.45856911
948944.8231786321039232.45856911949004.8231786321039232.45856911
949064.8231786321039232.45856911949124.8231786321039232.45856911
949184.8231786321039232.45856911949244.8231786321039232.45856911
949304.8231786321039232.45856911949364.8231786321039232.45856911
949424.8231786321039232.45856911949484.8231786321039232.45856911
949544.8231786321039232.45856911949604.8231786321039232.45856911
949664.8231786321039232.45856911949724.8231786321039232.45856911
949784.8231786321039232.45856911949844.8231786321039232.45856911
949904.8231786321039232.45856911949964.8231786321039232.45856911
950024.8231786321039232.45856911950084.8231786321039232.45856911
950144.8231786321039232.45856911950204.8231786321039232.45856911
950264.8231786321039232.45856911950324.8231786321039232.45856911
950384.8231786321039232.45856911950444.8231786321039232.45856911
950504.8231786321039232.45856911950564.8231786321039232.45856911
950624.8231786321039232.45856911950684.8231786321039232.45856911
950744.8231786321039232.45856911950804.8231786321039232.45856911
950864.8231786321039232.45856911950924.8231786321039232.45856911
950984.8231786321039232.45856911951044.8231786321039232.45856911
951104.8231786321039232.45856911951164.8231786321039232.45856911
951224.8231786321039232.45856911951284.8231786321039232.45856911
951344.8231786321039232.45856911951404.8231786321039232.45856911
951464.8231786321039232.45856911951524.8231786321039232.45856911
951584.8231786321039232.45856911951644.8231786321039232.45856911
951704.8231786321039232.45856911951764.8231786321039232.45856911
951824.8231786321039232.45856911951884.8231786321039232.45856911
951944.8231786321039232.45856911952004.8231786321039232.45856911
952064.8231786321039232.45856911952124.8231786321039232.45856911
952184.8231786321039232.45856911952244.8231786321039232.45856911
952304.8231786321039232.45856911952364.8231786321039232.45856911
952424.8231786321039232.45856911952484.8231786321039232.45856911
952544.8231786321039232.45856911952604.8231786321039232.45856911
952664.8231786321039232.45856911952724.8231786321039232.45856911
952784.8231786321039232.45856911952844.8231786321039232.45856911
952904.8231786321039232.45856911952964.8231786321039232.45856911
953024.8231786321039232.45856911953084.8231786321039232.45856911
953144.8231786321039232.45856911953204.8231786321039232.45856911
953264.8231786321039232.45856911953324.8231786321039232.45856911
953384.8231786321039232.45856911953444.8231786321039232.45856911
947624.8231786321039172.45856911947684.8231786321039172.45856911
947744.8231786321039172.45856911947804.8231786321039172.45856911
947864.8231786321039172.45856911947924.8231786321039172.45856911
947984.8231786321039172.45856911948044.8231786321039172.45856911
948104.8231786321039172.45856911948164.8231786321039172.45856911
948224.8231786321039172.45856911948284.8231786321039172.45856911
948344.8231786321039172.45856911948404.8231786321039172.45856911
948464.8231786321039172.45856911948524.8231786321039172.45856911
948584.8231786321039172.45856911948644.8231786321039172.45856911
948704.8231786321039172.45856911948764.8231786321039172.45856911
948824.8231786321039172.45856911948884.8231786321039172.45856911