Flow Title=unsteadyflowdataattetmpt3
Program Version=5.01
Use Restart= 0 
Boundary Location=                ,                ,        ,        ,                ,myarea3         ,                ,upstream3       
Interval=1DAY
Flow Hydrograph= 1830 
    2.95    2.99    2.98    2.97    2.95    2.94    2.93    2.92     2.9    2.89
    2.88    2.87    2.85    2.84    2.83    2.82     2.8    2.79    2.78    2.77
    2.75    2.74    2.73    2.72     2.7    2.69    2.68    2.67    2.65    2.64
    2.63    2.62     2.6    2.59    2.58    2.57    2.55    2.54    2.53    2.51
     2.5    2.49    2.48    2.46    2.45    2.44    2.43    2.41     2.4    2.39
    2.38    2.36    2.35    2.34    2.33    2.31     2.3    2.29    2.28    2.26
    2.25    2.24    2.23    2.21     2.2    2.19    2.18    2.16    2.15    2.14
    2.13    2.11     2.1    2.09    2.08    2.06    2.05    2.04    2.02    2.01
       2    1.99    1.97    1.96    1.95    1.94    1.92    1.91     1.9    1.89
    1.87    1.86    1.85    1.84    1.82    1.81     1.8    1.79    1.77    1.76
    1.75    1.74    1.72    1.71     1.7    1.69    1.67    1.66    1.65    1.64
    1.62    1.61     1.6    1.58    1.57    1.56    1.55    1.53    1.52    1.51
     1.5    1.48    1.47    1.46    1.45    1.43    1.42    1.41     1.4    1.38
    1.37    1.36    1.35    1.33    1.32    1.31     1.3    1.28    1.27    1.26
    1.25    1.23    1.22    1.21     1.2    1.18    1.17     1.2    1.23    1.25
    1.28    1.31    1.34    1.36    1.39    1.42    3.88    6.33    8.79   11.24
   38.97  66.702   45.32   23.93    2.55    2.39    2.22    2.06    1.89   49.74
   97.59  145.44  193.29  146.06   98.83    51.6    4.37   97.85  191.34  284.82
   378.3  471.79  565.27   477.5  389.72  301.95  214.17   126.4   38.62  47.068
   35.52    9.96  297.45  584.94  872.43  575.11  277.79   43.84    8.07    9.93
    11.8   13.66   15.52   17.39   19.25   53.49   42.36  31.229   65.73  100.23
  126.55  152.87  179.19  124.38  228.39   332.4  234.59  136.78   155.6   93.85
    32.1   51.13   39.01    26.9   14.78   14.83   14.88   14.93   14.99   15.04
   15.09   15.14   15.19   15.24   15.29   15.35    15.4   15.45    15.5    35.2
    54.9   44.17   33.45   22.72  146.97  271.22  395.47  519.72  371.24  222.75
  164.12   105.5   46.87   44.47   42.08   39.68  107.13  174.57  242.02  309.46
   580.6     450  319.41  188.81   58.21  586.57 1114.93 1643.28 2171.64    2700
1435.055   419.7  242.34  217.07  191.79  149.41  227.16   304.9  382.65   204.8
  185.23  165.67   146.1  199.58  253.05  306.53   215.6 124.663  119.91  115.17
  110.42  105.67  100.92   96.17   91.43   86.68   81.93   79.43   76.92   74.42
   71.92   69.42   66.91   64.41   61.91    59.4    56.9   55.76   54.63   53.49
   52.35   51.21   50.08   48.94    47.8   46.66   45.53   44.39   43.25   42.11
   40.98   39.84    38.7   37.56   36.43   35.29   34.15   33.01   31.88   30.74
    29.6   29.16   28.71   28.27   27.82   27.38   26.93   26.49   26.04    25.6
   25.15   24.71   24.26   23.82   23.37   22.93   22.48   22.04   21.59   21.15
    20.7   20.26   19.81   29.82   39.83   49.84   59.85   69.86   79.87   89.89
    99.9  109.91  119.92  129.93  139.94  149.95  159.96  139.18  118.39   97.61
   76.82   56.04   35.25   14.47   14.34   14.22   14.09   13.96   13.83   13.71
   13.58   13.45   13.32    13.2   13.07   12.94   12.82   12.69   12.56   12.43
   12.31   12.18   12.05   11.92    11.8   11.67   11.54   11.41   11.29   11.16
   11.03   10.91   10.78   10.65   10.52    10.4   10.27   10.14   10.01    9.89
    9.76    9.63    9.51    9.38    9.25    9.12       9    8.87    8.74    8.61
    8.49    8.36    8.23     8.1    7.98    7.85    7.79    7.73    7.67    7.61
    7.55    7.48    7.42    7.36     7.3    7.24    7.18    7.12    7.06       7
    6.94    6.88    6.82    6.75    6.69    6.63    6.57    6.51    6.45    6.39
    6.33    6.27    6.21    6.15    6.08    6.02    5.96     5.9    5.84    5.78
    5.72    5.66     5.6    5.54    5.48    5.41    5.35    5.29    5.23    5.17
    5.11    5.05    4.99    4.93    4.87    4.81    4.75    4.68    4.62    4.56
     4.5    4.44    4.38    4.35    4.32    4.28    4.25    4.22    4.19    4.15
    4.12    4.09    4.06    4.02    3.99    3.96    3.93    3.89    3.86    3.83
     3.8    3.76    3.73     3.7    3.67    3.63     3.6    3.57    3.54     3.5
    3.47    3.44    3.41    3.37    3.34    3.28    3.22    3.17    3.11    3.05
    3.48    3.91    4.34    4.77    10.2   15.63   12.09    8.54    34.1   59.65
   85.21   59.31   33.41   84.82  136.23   99.96   63.69  171.62  279.54  188.62
   97.71    6.79     8.4      10   17.58   37.89   29.97   58.95   41.42   23.88
    6.35    6.25    6.14    6.04    5.94    5.83    5.73    5.62    5.52   13.49
   21.45  146.53  271.62   396.7  227.96   571.3  914.65 1257.99  948.63  639.27
   329.9   20.54   16.98   13.43    9.87   10.14   10.41   10.69   10.96   11.23
    11.5   11.78   12.05   12.32   12.59   12.86   13.14   13.41   13.68   18.12
   22.56      27   31.44  91.517   68.38   45.25   22.12  280.69  539.26  797.83
  1056.4  601.94  147.48  158.75 170.026  198.25  357.46  516.67  397.96  279.24
  160.53   41.81  36.226   38.26    40.3  42.342  102.23  162.11  121.76   81.41
   41.06   43.33    45.6   47.87   50.14   52.41   45.15   69.44   93.73    74.8
   55.86   36.93   37.75   45.36   52.97   60.58  105.05  112.65  120.26  127.86
   125.7  123.53  121.37   94.94   92.08   89.21  156.22  223.22  172.11     121
  107.12   93.24   79.35   65.47   74.24      83   91.77   72.52   53.26   52.58
   51.91   51.23   50.55   49.87    49.2   48.52   47.84   47.16   46.49   45.81
   45.13   44.45   43.78    43.1   42.52   41.95   41.37   40.79   40.21   39.64
   39.06   38.48   37.91   37.33   36.75   36.18    35.6   35.02   34.44   33.87
   33.29   32.71   32.14   31.56   30.98    30.4   29.83   29.25   28.67    28.1
   27.52   26.94   26.36   25.79   25.21   24.63   24.06   23.48    22.9   22.33
   21.75   21.17   20.59   20.02   19.44    19.2   18.95   18.71   18.47   18.22
   17.98   17.74   17.49   17.25   17.01   16.76   16.52   16.28   16.03   15.79
   15.55    15.3   15.06   14.98    14.9   14.83   14.75   14.67   14.59   14.52
   14.44   14.36   14.28    14.2   14.13   14.05   13.97   13.89   13.82   13.74
   13.66   13.58    13.5   13.43   13.35   13.27   13.19   13.12   13.04   12.96
   12.88    12.8   12.73   12.65   12.57   12.49   12.42   12.34   12.26   12.18
    12.1   12.03   11.95   11.87   11.79   11.72   11.64   11.56   11.48    11.4
   11.33   11.25   11.17   11.09   11.01   10.94   10.86   10.78    10.7   10.63
   10.55   10.47   10.39   10.31   10.24   10.16   10.08      10    9.93    9.85
    9.77    9.69    9.61    9.54    9.46    9.38     9.3    9.23    9.15    9.07
    8.99    8.91    8.84    8.76    8.68     8.6    8.53    8.45    8.37    8.29
    8.21    8.14    8.06    7.98     7.9    7.83    7.75    7.67    7.59    7.51
    7.44    7.36    7.28     7.2    7.13    7.05    6.97    6.89    6.81    6.74
    6.66    6.58     6.5    6.43    6.35    6.27    6.19    6.11    6.04    5.96
    5.88     5.8    5.73    5.65    5.57    5.49    5.41    5.34    5.26    5.18
     5.1    5.03    4.95    4.87    4.79    4.71    4.64    4.56    4.48     4.4
    4.32    4.25    4.17    4.09    4.01    3.94    3.86    3.78     3.7    3.62
   3.547   10.14   16.73   23.33   29.92   21.21   12.49    3.78    3.72    3.67
    3.61    3.56     3.5    3.45    3.39    3.33    3.28    3.22    3.17    3.11
    3.06       3    3.57    4.13     4.7    5.26   56.23   107.2   73.37   39.55
    5.72    5.89    6.06    6.23     6.4    6.23    6.07     5.9  200.91  395.92
  590.92  785.93  980.94  689.48  398.01  106.55  467.16  827.78 1188.39    1549
 1052.73  556.46   60.19  125.09  189.98  254.88  173.81   92.75   11.68   11.96
   12.23   12.51   12.78   13.06   13.33   13.61   13.88   14.16   14.43   14.71
   14.98   15.26   15.53    96.7  177.86  259.03  340.19  243.32  146.44  646.97
  1147.5 1348.25    1549  984.55   420.11117.268  677.31  237.35   67.52   60.83
   54.14   69.14  84.144   73.47   62.79   52.11   51.46    50.8   50.15    49.5
   48.84   48.19   47.54   46.88   46.23   45.57   44.92   44.27   43.61   42.96
   42.31   41.65      41   55.88   70.77   85.65  381.67  677.68  393.04  108.39
   44.58   55.19   65.79   53.54   41.28   41.97   40.79   39.61   38.43   37.25
    36.6   35.95    35.3   34.65      34   33.35    32.7   32.05    31.4   29.18
   26.96   24.74   22.52    20.3   18.08   18.08   18.08   18.08   18.08   18.08
   18.08   18.08   18.08   18.08   18.08   18.08   18.08   18.08   18.08   18.08
   18.08   18.08   18.08   18.08   18.08   18.08   18.08   18.08   18.08   18.08
   18.08   18.08   18.08   18.08   18.08   18.08   17.89   17.71   17.52   17.33
   17.14   16.96   16.77   16.58    16.4   16.21   16.02   15.83   15.65   15.46
   15.27   15.08    14.9   14.71   14.52   14.34   14.15   13.96   13.77   13.59
    13.4   13.21   13.03   12.84   12.65   12.46   12.28   12.09    11.9   11.71
   11.53   11.34   11.15  10.966   10.84   10.72    10.6   10.48   10.35   10.23
   10.11   10.05      10    9.94    9.88    9.82    9.77    9.71    9.65    9.59
    9.54    9.48    9.42    9.37    9.31    9.25    9.19    9.14    9.08    9.02
    8.96    8.91    8.85    8.79    8.74    8.68    8.62    8.56    8.51    8.45
    8.39    8.33    8.28    8.22    8.16    8.11    8.05    7.99    7.93    7.88
    7.82    7.76     7.7    7.65    7.59    7.53    7.48    7.42    7.36     7.3
    7.25    7.19    7.13    7.07    7.02    6.96     6.9    6.85    6.79    6.73
    6.67    6.62    6.56     6.5    6.44    6.39    6.33    6.27    6.22    6.16
     6.1    6.04    5.99    5.93    5.87    5.81    5.76     5.7    5.64    5.59
    5.53    5.47    5.41    5.36     5.3    5.24    5.18    5.13    5.07    5.01
    4.96     4.9    4.84    4.78    4.73    4.67    4.61    4.55     4.5    4.44
    4.42     4.4    4.38    4.36    4.34    4.32     4.3    4.29    4.27    4.25
    4.23    4.21    4.19    4.17    4.15    4.13    4.11    4.09    4.07    4.05
    4.03    4.01       4    3.98    3.96    3.94    3.92     3.9    3.88    3.86
    3.84    3.82     3.8    3.78    3.76    3.74    3.72    3.71    3.69    3.67
    3.65    3.63    3.61    3.59    3.57    3.55    3.53    3.51    3.49    3.47
    3.45    3.43    3.42     3.4    3.38    3.36    3.34    3.32     3.3    3.28
    3.26    3.24    3.22     3.2    3.18    3.16    3.14    3.13    3.11    3.09
    3.07    3.05    3.03    3.01    2.99    3.35    3.71   46.71   89.71  132.71
   90.14   47.57       5    4.83    4.65    4.48     4.3    4.13    3.95    3.78
     3.6    3.43    3.25    3.08     2.9    2.73   10.98   19.23   27.48   19.35
   11.23     3.1   19.05   35.01   50.96   66.91  272.75  478.59  305.85  133.11
  841.06    1549 1097.69  646.38  195.07  431.98  668.89  378.39   87.88   47.46
    7.04    8.53   10.02   11.51      13   14.49   38.97   63.45   87.93 112.413
  265.24  271.37   277.5  165.66   53.82   32.77   11.71   11.38   56.89   102.4
  147.91  125.36   102.8  141.68  126.42  111.16   66.26   55.34   44.42   33.49
   22.57    23.2   23.83   24.45   25.08    78.5  131.92  185.34  214.99  306.32
   831.1 1355.88  902.67  449.45  518.91  302.88   86.85   86.85   86.85   93.72
    65.1  112.77  160.43  123.47   86.51  112.61   138.7   164.8  111.07  167.64
  224.21  204.11  228.43  216.21  151.63   87.04   98.35  109.66  115.73   211.9
  308.06  326.13   344.2  450.38  556.56 290.612   219.2  147.79  164.35   180.9
  180.38  179.86  142.87  166.07  142.33  118.59   94.85   94.85   94.85   94.85
   93.39   91.93   90.47      89   87.54   86.08   84.62   83.16    81.7   80.23
   78.77   77.31   75.85   74.39   72.93   71.46      70   68.54   67.08   65.62
   64.16    62.7   61.23   59.77   58.31   56.85   55.39   53.93   52.46      51
   49.54   48.08   46.62   45.16   43.69   42.23   40.77   39.31   37.85   36.39
   34.92   33.46      32   30.54   30.33   30.12   29.91    29.7   29.49   29.28
   29.06   28.85   28.64   28.43   28.22   28.01    27.8   27.52   27.24   26.96
   26.68    26.4   26.12   25.84   25.56   25.28      25   24.72   24.44   24.16
   23.88   23.61   23.33   23.05   22.77   22.49   22.21   21.93   21.65   21.37
   21.09   20.81   20.53   20.25   19.97   19.69   19.41   19.13   18.85   18.57
   18.29   18.01   17.73   17.45   17.17   16.89   16.61   16.33   16.05   15.77
    15.5   15.22   14.94   14.66   14.38    14.1   13.82   13.54   13.26   12.98
    12.7   12.42   12.14   11.86   11.58    11.5   11.41   11.33   11.25   11.17
   11.08      11   10.92   10.83   10.75   10.67   10.59    10.5   10.42   10.34
   10.25   10.17   10.09   10.01    9.92    9.84    9.76    9.68    9.59    9.51
    9.43    9.34    9.26    9.18     9.1    9.01    8.93    8.85    8.76    8.68
     8.6    8.52    8.43    8.35    8.27    8.18     8.1    8.02    7.94    7.85
    7.77    7.69     7.6    7.52    7.44    7.36    7.27    7.19    7.11    7.02
    6.94    6.86    6.78    6.69    6.61    6.53    6.44    6.36    6.28     6.2
    6.11    6.03    5.95    5.87    5.78     5.7    5.62    5.53    5.45    5.37
    5.29     5.2    5.12    5.04    4.95    4.87    4.79    4.71    4.62    4.54
    4.51    4.48    4.45    4.42    4.39    4.36    4.32    4.29    4.26    4.23
     4.2    4.17    4.14   90.57  176.99  263.42  349.84  236.06  122.29   8.514
    8.14    7.78    7.41    7.04    6.67     6.3    5.93    5.56    5.19    4.82
    4.45   18.65   32.86   47.06   61.26   45.05  110.22  175.39  240.56  305.73
  176.78   47.83    76.5   47.88   19.25    40.7   62.15   68.02  109.05  150.09
  191.12  232.15  176.79  121.44   66.08   100.5  134.91  169.33  116.62   63.92
   11.21  140.28  269.35  204.36  139.37  119.44    99.5   79.57  113.13  146.68
   89.18   31.67   36.19    40.7   45.22    36.5   27.77   433.6  839.42 1245.25
  359.03 815.918  719.01 622.105 1058.94 1495.77  699.36  248.32  207.26  166.19
  157.19  148.19  139.19  134.77  130.35  125.94  121.52   117.1  112.68  108.27
  103.85   99.43   97.43   95.43   93.42   91.42  237.73  384.03  530.34  676.64
  554.54  432.45  310.35  188.25  239.54  290.83  342.12 221.708  179.86  138.01
  165.41  192.81  220.21  171.21   122.2  119.78  117.36  114.93  112.51  110.09
  107.67  105.24  102.82  102.58  102.34  345.61  588.87  832.14  960.63 1089.11
  1217.6    1549  864.06 179.126  178.98  178.84  231.34  283.84  185.24  174.13
  163.03  151.92  140.82  129.71  125.97  122.22  118.48  114.74  110.99  107.25
  103.51   99.76   96.02   92.28   88.53   84.79   81.05    77.3   73.56   72.12
   70.68   69.24    67.8   66.36   64.92   63.48   62.04    60.6   59.16   57.72
   67.21    76.7  86.197   77.22   68.25   59.28  50.305   49.55   48.79   48.03
   47.28   46.52   45.76   45.01   44.25   43.49   42.74   41.98   41.22   40.47
   39.71   38.95    38.2   37.44   36.68   35.93   35.17   34.41   33.66    32.9
   32.14   31.39   30.63   29.87   29.12   28.36   27.93   27.51   27.08   26.65
Flow Hydrograph Slope= 0.001 
DSS Path=
Use DSS=False
Use Fixed Start Time=True
Fixed Start Date/Time=01JAN2016,00:00
Is Critical Boundary=False
Critical Boundary Flow=
Boundary Location=                ,                ,        ,        ,                ,myarea3         ,                ,downstream3     
Friction Slope=0.00056
